   Input file: benzene-bionapl.phrq
  Output file: benzene-bionapl.phrq.out
Database file: phreeqc_3.dat

------------------
Reading data base.
------------------

	SOLUTION_MASTER_SPECIES
	SOLUTION_SPECIES
	PHASES
	EXCHANGE_MASTER_SPECIES
	EXCHANGE_SPECIES
	SURFACE_MASTER_SPECIES
	SURFACE_SPECIES
	RATES
	END
------------------------------------
Reading input data for simulation 1.
------------------------------------

	TITLE CompBIONAPL 3
	SOLUTION_MASTER_SPECIES
	  Xylene   	Xylene      0   C8H10  	106.16
	  Benzene   Benzene       0     C6H6  78.108
	  Pseudomonas	Pseudomonas		0	22.6	22.6
	  Aerogineas	Aerogineas		0	22.7	22.7
	SOLUTION_SPECIES
	  Xylene = Xylene
	  log_k 0
	  gamma    0.0000    0.0000
	  Benzene = Benzene
	  log_k 0
	  gamma    0.0000    0.0000
	  Pseudomonas = Pseudomonas
	  log_k 0
	  gamma    0.0000    0.0000
	  Aerogineas = Aerogineas
	  log_k 0
	  gamma    0.0000    0.0000
	SOLUTION 1
	 units mg/l
	 Xylene 37.3
	 Benzene 20
	 O(0)  20
	 C(4)   10
	 S(6)  5
	 Na     5
	 Cl		5
	 Pseudomonas 0.003
	 Aerogineas 0.003
	RATES
	 Benzene_degradation
	 start
	  1 KO2_max = parm(1)
	  2 KO2_half = parm(2)
	  3 KAO2_half = parm(3)
	  4 KI = parm(4)  
	  5 R = 1 + parm(5)
	  6 KSO4_max = parm(6)
	  7 KSO4_half = parm(7)
	  8 KASO4_half = parm(8)
	 10 S = mol("Benzene")
	 20 BO2 = mol("Pseudomonas")
	 30 BSO4 = mol("Aerogineas")
	 40 EAO2 = mol("O2")
	 50 EASO4 = mol("SO4-2")
	 60 if S < 1e-15 then goto 110
	 70 rateBO2 =  - KO2_max * BO2 * (S /(KO2_half + S + (S*S/KI))) * (EAO2 /(KAO2_half + EAO2)) / R
	 80 rateBSO4 =  - KSO4_max * BSO4 * (S /(KSO4_half + S + (S*S/KI))) * (EASO4 /(KASO4_half + EASO4)) / R
	 90 rate = rateBO2 + rateBSO4
	 100 dS = rate * time
	 110 save dS
	 120 put(rateBO2, 1)
	 130 put(rateBSO4, 2)
	 end
	  Xylene_degradation
	 start
	  1 KO2_max = parm(1)
	  2 KO2_half = parm(2)
	  3 KAO2_half = parm(3)
	  4 KI = parm(4)  
	  5 R = 1 + parm(5)
	  6 KSO4_max = parm(6)
	  7 KSO4_half = parm(7)
	  8 KASO4_half = parm(8)
	 10 S = mol("Xylene")
	 20 BO2 = mol("Pseudomonas")
	 30 BSO4 = mol("Aerogineas")
	 40 EAO2 = mol("O2")
	 50 EASO4 = mol("SO4-2")
	 60 if S < 1e-15 then goto 110
	 70 rateXO2 =  - KO2_max * BO2 * (S /(KO2_half + S + (S*S/KI))) * (EAO2 /(KAO2_half + EAO2)) / R
	 80 rateXSO4 =  - KSO4_max * BSO4 * (S /(KSO4_half + S + (S*S/KI))) * (EASO4 /(KASO4_half + EASO4)) / R
	 90 rate = rateXO2 + rateXSO4
	 95 print rate
	 100 dS = rate * time
	 110 save dS
	 120 put(rateXO2, 3)
	 130 put(rateXSO4, 4)
	 end
	 EAO2_degradation
	 start
	  1 stoichiB = parm(1)
	  2 stoichiX = parm(2)
	  3 RB = 1 + parm(3)
	  4 RX = 1+ parm(4)
	 35 rateB = get(1) * RB
	 40 rateX = get(3) * RX
	 50 rateB = stoichiB * rateB
	 60 rateX = stoichiX * rateX
	 70 rateO2 = rateB + rateX 
	 80 dS = rateO2 * time
	 90 save dS
	 end
	EASO4_degradation
	 start
	  1 stoichiB = parm(1)
	  2 stoichiX = parm(2)
	  3 RB = 1 + parm(3)
	  4 RX = 1+ parm(4)
	 35 rateB = get(2) * RB
	 40 rateX = get(4) * RX
	 50 rateB = stoichiB * rateB
	 60 rateX = stoichiX * rateX
	 70 rateSO4 = rateB + rateX 
	 80 dS = rateSO4 * time
	 90 save dS
	 end
	 Biomass_O2_degradation
	 start
	  1 Y = parm(1)
	  2 K_Bd = parm(2)
	  3 RB = 1 + parm(3)
	  4 RX = 1+ parm(4)
	 35 rateB = get(1) * RB
	 40 rateX = get(3) * RX
	 20 B = mol("Pseudomonas") 
	 30 rate = - Y  * (rateB + rateX) - k_Bd * B
	 40 dB = rate * time
	 50 save dB
	 end
	 Biomass_SO4_degradation
	 start
	  1 Y = parm(1)
	  2 K_Bd = parm(2)
	  3 RB = 1 + parm(3)
	  4 RX = 1+ parm(4)
	 35 rateB = get(2) * RB
	 40 rateX = get(4) * RX
	 20 B = mol("Aerogineas") 
	 30 rate = - Y  * (rateB + rateX) - k_Bd * B
	 40 dB = rate * time
	 50 save dB
	 end
	 KINETICS 1
	 Benzene_degradation
	  formula Benzene 1 #C6H6 -1 #O2 1
	  parms  5.22424791e-6  2.560e-5  6.2519e-5  8.65e-4  0.86   5.22424791e-6  2.560e-5    6.2519e-5
	 Xylene_degradation
	  formula Xylene 1 #C6H6 -1 #O2 1
	  parms  5.22424791e-6  2.560e-5  6.2519e-5  8.65e-4  0.86   5.22424791e-6  2.560e-5    6.2519e-5
	 EAO2_degradation
	  formula O2 7.5
	  parms 7.5       7.5       0.86  0.86
	 EASO4_degradation
	  formula SO4-2 1
	  parms 1         1         0.86  0.86
	 Biomass_O2_degradation
	   formula Pseudomonas 1
	   parms  1.77  0     0.86  0.06      
	  Biomass_SO4_degradation
	   formula Aerogineas 1
	   parms  1.77  0     0.86  0.06      
		steps 1e7 in 3 # time steps, number of steps
	INCREMENTAL_REACTIONS
	END
-----
TITLE
-----

 CompBIONAPL 3

-------------------------------------------
Beginning of initial solution calculations.
-------------------------------------------

Initial solution 1.	

-----------------------------Solution composition------------------------------

	Elements           Molality       Moles

	Aerogineas        1.322e-07   1.322e-07
	Benzene           2.561e-04   2.561e-04
	C(4)              1.639e-04   1.639e-04
	Cl                1.410e-04   1.410e-04
	Na                2.175e-04   2.175e-04
	O(0)              1.250e-03   1.250e-03
	Pseudomonas       1.328e-07   1.328e-07
	S(6)              5.205e-05   5.205e-05
	Xylene            3.514e-04   3.514e-04

----------------------------Description of solution----------------------------

                                       pH  =   7.000    
                                       pe  =   4.000    
       Specific Conductance (uS/cm, 25 oC) = 35
                          Density (g/cm3)  =   0.99712
                               Volume (L)  =   1.00300
                        Activity of water  =   1.000
                           Ionic strength  =   3.506e-04
                       Mass of water (kg)  =   1.000e+00
                 Total alkalinity (eq/kg)  =   1.344e-04
                       Total CO2 (mol/kg)  =   1.639e-04
                      Temperature (deg C)  =  25.00
                  Electrical balance (eq)  =  -1.621e-04
 Percent error, 100*(Cat-|An|)/(Cat+|An|)  = -27.15
                               Iterations  =   5
                                  Total H  = 1.110126e+02
                                  Total O  = 5.550814e+01

---------------------------------Redox couples---------------------------------

	Redox couple             pe  Eh (volts)

	O(-2)/O(0)          13.7190      0.8116

----------------------------Distribution of species----------------------------

                                               Log       Log       Log    mole V
   Species          Molality    Activity  Molality  Activity     Gamma   cm3/mol

   OH-             1.034e-07   1.012e-07    -6.985    -6.995    -0.009     -4.12
   H+              1.021e-07   1.000e-07    -6.991    -7.000    -0.009      0.00
   H2O             5.551e+01   1.000e+00     1.744    -0.000     0.000     18.07
Aerogineas    1.322e-07
   Aerogineas      1.322e-07   1.322e-07    -6.879    -6.879     0.000     (0)  
Benzene       2.561e-04
   Benzene         2.561e-04   2.561e-04    -3.592    -3.592     0.000     (0)  
C(4)          1.639e-04
   HCO3-           1.342e-04   1.314e-04    -3.872    -3.881    -0.009     24.58
   CO2             2.954e-05   2.954e-05    -4.530    -4.530     0.000     30.26
   NaHCO3          7.023e-08   7.023e-08    -7.154    -7.153     0.000     19.41
   CO3-2           6.710e-08   6.162e-08    -7.173    -7.210    -0.037     -4.42
   NaCO3-          5.983e-11   5.857e-11   -10.223   -10.232    -0.009     -0.67
Cl            1.410e-04
   Cl-             1.410e-04   1.380e-04    -3.851    -3.860    -0.009     18.06
H(0)          1.416e-25
   H2              7.079e-26   7.079e-26   -25.150   -25.150     0.000     28.61
Na            2.175e-04
   Na+             2.174e-04   2.128e-04    -3.663    -3.672    -0.009     -1.40
   NaHCO3          7.023e-08   7.023e-08    -7.154    -7.153     0.000     19.41
   NaSO4-          5.202e-08   5.092e-08    -7.284    -7.293    -0.009     18.41
   NaCO3-          5.983e-11   5.857e-11   -10.223   -10.232    -0.009     -0.67
   NaOH            2.154e-21   2.154e-21   -20.667   -20.667     0.000     (0)  
O(0)          1.250e-03
   O2              6.251e-04   6.251e-04    -3.204    -3.204     0.000     30.40
Pseudomonas   1.328e-07
   Pseudomonas     1.328e-07   1.328e-07    -6.877    -6.877     0.000     (0)  
S(6)          5.205e-05
   SO4-2           5.200e-05   4.775e-05    -4.284    -4.321    -0.037     13.96
   NaSO4-          5.202e-08   5.092e-08    -7.284    -7.293    -0.009     18.41
   HSO4-           4.743e-10   4.642e-10    -9.324    -9.333    -0.009     40.26
Xylene        3.514e-04
   Xylene          3.514e-04   3.514e-04    -3.454    -3.454     0.000     (0)  

------------------------------Saturation indices-------------------------------

	Phase               SI   log IAP   log K(298 K,   1 atm)

	CO2(g)           -3.07     -4.53   -1.46  CO2
	H2(g)           -22.05    -25.15   -3.10  H2
	H2O(g)           -1.50     -0.00    1.50  H2O
	Halite           -9.10     -7.53    1.57  NaCl
	O2(g)            -0.31     -3.20   -2.89  O2


-----------------------------------------
Beginning of batch-reaction calculations.
-----------------------------------------

Reaction step 1.

 -3.4315e-13 
 -3.4170e-13 
 -3.4093e-13 
 -3.3843e-13 
 -3.3452e-13 
 -3.3582e-13 
 -3.3452e-13 
Using solution 1.	
Using kinetics 1.	

Kinetics 1.	

	Time step: 3.33333e+06 seconds  (Incremented time: 3.33333e+06 seconds)

	Rate name       Delta Moles Total Moles   Reactant        Coefficient

	Benzene_degradation   1.198e-06   1.000e+00   Benzene                   1
	Xylene_degradation   1.130e-06   1.000e+00   Xylene                    1
	EAO2_degradation   2.164e-05   1.000e+00   O2                      7.5
	EASO4_degradation   1.445e-06   1.000e+00   SO4-2                     1
	Biomass_O2_degradation   0.000e+00   1.000e+00   Pseudomonas               1
	Biomass_SO4_degradation   0.000e+00   1.000e+00   Aerogineas                1

-----------------------------Solution composition------------------------------

	Elements           Molality       Moles

	Aerogineas        1.322e-07   1.322e-07
	Benzene           2.549e-04   2.549e-04
	C                 1.639e-04   1.639e-04
	Cl                1.410e-04   1.410e-04
	Na                2.175e-04   2.175e-04
	Pseudomonas       1.328e-07   1.328e-07
	S                 5.061e-05   5.061e-05
	Xylene            3.502e-04   3.502e-04

----------------------------Description of solution----------------------------

                                       pH  =   7.053      Charge balance
                                       pe  =  13.633      Adjusted to redox equilibrium
       Specific Conductance (uS/cm, 25 oC) = 35
                          Density (g/cm3)  =   0.99712
                               Volume (L)  =   1.00300
                        Activity of water  =   1.000
                           Ionic strength  =   3.491e-04
                       Mass of water (kg)  =   1.000e+00
                 Total alkalinity (eq/kg)  =   1.373e-04
                       Total CO2 (mol/kg)  =   1.639e-04
                      Temperature (deg C)  =  25.00
                  Electrical balance (eq)  =  -1.621e-04
 Percent error, 100*(Cat-|An|)/(Cat+|An|)  = -27.15
                               Iterations  =  54
                                  Total H  = 1.110126e+02
                                  Total O  = 5.550781e+01

----------------------------Distribution of species----------------------------

                                               Log       Log       Log    mole V
   Species          Molality    Activity  Molality  Activity     Gamma   cm3/mol

   OH-             1.169e-07   1.144e-07    -6.932    -6.942    -0.009     -4.12
   H+              9.032e-08   8.846e-08    -7.044    -7.053    -0.009      0.00
   H2O             5.551e+01   1.000e+00     1.744    -0.000     0.000     18.07
Aerogineas    1.322e-07
   Aerogineas      1.322e-07   1.322e-07    -6.879    -6.879     0.000     (0)  
Benzene       2.549e-04
   Benzene         2.549e-04   2.549e-04    -3.594    -3.594     0.000     (0)  
C(-4)         0.000e+00
   CH4             0.000e+00   0.000e+00  -145.673  -145.673     0.000     32.22
C(4)          1.639e-04
   HCO3-           1.371e-04   1.342e-04    -3.863    -3.872    -0.009     24.58
   CO2             2.669e-05   2.669e-05    -4.574    -4.574     0.000     30.26
   CO3-2           7.744e-08   7.113e-08    -7.111    -7.148    -0.037     -4.42
   NaHCO3          7.172e-08   7.172e-08    -7.144    -7.144     0.000     19.41
   NaCO3-          6.907e-11   6.762e-11   -10.161   -10.170    -0.009     -0.67
Cl            1.410e-04
   Cl-             1.410e-04   1.381e-04    -3.851    -3.860    -0.009     18.06
H(0)          0.000e+00
   H2              0.000e+00   0.000e+00   -44.522   -44.522     0.000     28.61
Na            2.175e-04
   Na+             2.174e-04   2.128e-04    -3.663    -3.672    -0.009     -1.40
   NaHCO3          7.172e-08   7.172e-08    -7.144    -7.144     0.000     19.41
   NaSO4-          5.058e-08   4.952e-08    -7.296    -7.305    -0.009     18.41
   NaCO3-          6.907e-11   6.762e-11   -10.161   -10.170    -0.009     -0.67
   NaOH            2.434e-21   2.435e-21   -20.614   -20.614     0.000     (0)  
O(0)          9.240e-04
   O2              4.620e-04   4.621e-04    -3.335    -3.335     0.000     30.40
Pseudomonas   1.328e-07
   Pseudomonas     1.328e-07   1.328e-07    -6.877    -6.877     0.000     (0)  
S(-2)         0.000e+00
   HS-             0.000e+00   0.000e+00  -143.216  -143.226    -0.009     20.59
   H2S             0.000e+00   0.000e+00  -143.337  -143.337     0.000     37.16
   S-2             0.000e+00   0.000e+00  -149.054  -149.091    -0.037     (0)  
S(6)          5.061e-05
   SO4-2           5.056e-05   4.643e-05    -4.296    -4.333    -0.037     13.96
   NaSO4-          5.058e-08   4.952e-08    -7.296    -7.305    -0.009     18.41
   HSO4-           4.080e-10   3.993e-10    -9.389    -9.399    -0.009     40.26
Xylene        3.502e-04
   Xylene          3.502e-04   3.502e-04    -3.456    -3.456     0.000     (0)  

------------------------------Saturation indices-------------------------------

	Phase               SI   log IAP   log K(298 K,   1 atm)

	CH4(g)         -142.83   -145.67   -2.84  CH4
	CO2(g)           -3.11     -4.57   -1.46  CO2
	H2(g)           -41.42    -44.52   -3.10  H2
	H2O(g)           -1.50     -0.00    1.50  H2O
	H2S(g)         -142.29   -150.28   -7.99  H2S
	Halite           -9.10     -7.53    1.57  NaCl
	O2(g)            -0.44     -3.34   -2.89  O2
	Sulfur         -106.85   -101.97    4.88  S


Reaction step 2.

 -3.3452e-13 
 -3.3226e-13 
 -3.3105e-13 
 -3.2696e-13 
 -3.2022e-13 
 -3.2252e-13 
 -3.2022e-13 
Using solution 1.	
Using kinetics 1.	

Kinetics 1.	

	Time step: 3.33333e+06 seconds  (Incremented time: 6.66667e+06 seconds)

	Rate name       Delta Moles Total Moles   Reactant        Coefficient

	Benzene_degradation   1.158e-06   1.000e+00   Benzene                   1
	Xylene_degradation   1.094e-06   1.000e+00   Xylene                    1
	EAO2_degradation   2.074e-05   1.000e+00   O2                      7.5
	EASO4_degradation   1.423e-06   1.000e+00   SO4-2                     1
	Biomass_O2_degradation   0.000e+00   1.000e+00   Pseudomonas               1
	Biomass_SO4_degradation   0.000e+00   1.000e+00   Aerogineas                1

-----------------------------Solution composition------------------------------

	Elements           Molality       Moles

	Aerogineas        1.322e-07   1.322e-07
	Benzene           2.537e-04   2.537e-04
	C                 1.639e-04   1.639e-04
	Cl                1.410e-04   1.410e-04
	Na                2.175e-04   2.175e-04
	Pseudomonas       1.328e-07   1.328e-07
	S                 4.919e-05   4.919e-05
	Xylene            3.491e-04   3.491e-04

----------------------------Description of solution----------------------------

                                       pH  =   7.110      Charge balance
                                       pe  =  13.531      Adjusted to redox equilibrium
       Specific Conductance (uS/cm, 25 oC) = 35
                          Density (g/cm3)  =   0.99712
                               Volume (L)  =   1.00299
                        Activity of water  =   1.000
                           Ionic strength  =   3.477e-04
                       Mass of water (kg)  =   1.000e+00
                 Total alkalinity (eq/kg)  =   1.402e-04
                       Total CO2 (mol/kg)  =   1.639e-04
                      Temperature (deg C)  =  25.00
                  Electrical balance (eq)  =  -1.621e-04
 Percent error, 100*(Cat-|An|)/(Cat+|An|)  = -27.15
                               Iterations  =  40
                                  Total H  = 1.110126e+02
                                  Total O  = 5.550749e+01

----------------------------Distribution of species----------------------------

                                               Log       Log       Log    mole V
   Species          Molality    Activity  Molality  Activity     Gamma   cm3/mol

   OH-             1.333e-07   1.305e-07    -6.875    -6.885    -0.009     -4.12
   H+              7.921e-08   7.758e-08    -7.101    -7.110    -0.009      0.00
   H2O             5.551e+01   1.000e+00     1.744    -0.000     0.000     18.07
Aerogineas    1.322e-07
   Aerogineas      1.322e-07   1.322e-07    -6.879    -6.879     0.000     (0)  
Benzene       2.537e-04
   Benzene         2.537e-04   2.537e-04    -3.596    -3.596     0.000     (0)  
C(-4)         0.000e+00
   CH4             0.000e+00   0.000e+00  -145.362  -145.362     0.000     32.22
C(4)          1.639e-04
   HCO3-           1.399e-04   1.369e-04    -3.854    -3.864    -0.009     24.58
   CO2             2.388e-05   2.388e-05    -4.622    -4.622     0.000     30.26
   CO3-2           9.010e-08   8.277e-08    -7.045    -7.082    -0.037     -4.42
   NaHCO3          7.319e-08   7.319e-08    -7.136    -7.136     0.000     19.41
   NaCO3-          8.037e-11   7.868e-11   -10.095   -10.104    -0.009     -0.67
Cl            1.410e-04
   Cl-             1.410e-04   1.381e-04    -3.851    -3.860    -0.009     18.06
H(0)          0.000e+00
   H2              0.000e+00   0.000e+00   -44.433   -44.433     0.000     28.61
Na            2.175e-04
   Na+             2.174e-04   2.128e-04    -3.663    -3.672    -0.009     -1.40
   NaHCO3          7.319e-08   7.319e-08    -7.136    -7.136     0.000     19.41
   NaSO4-          4.917e-08   4.814e-08    -7.308    -7.318    -0.009     18.41
   NaCO3-          8.037e-11   7.868e-11   -10.095   -10.104    -0.009     -0.67
   NaOH            2.776e-21   2.776e-21   -20.557   -20.557     0.000     (0)  
O(0)          6.115e-04
   O2              3.057e-04   3.058e-04    -3.515    -3.515     0.000     30.40
Pseudomonas   1.328e-07
   Pseudomonas     1.328e-07   1.328e-07    -6.877    -6.877     0.000     (0)  
S(-2)         0.000e+00
   HS-             0.000e+00   0.000e+00  -142.927  -142.937    -0.009     20.59
   H2S             0.000e+00   0.000e+00  -143.105  -143.105     0.000     37.16
   S-2             0.000e+00   0.000e+00  -148.707  -148.744    -0.037     (0)  
S(6)          4.919e-05
   SO4-2           4.914e-05   4.513e-05    -4.309    -4.346    -0.037     13.96
   NaSO4-          4.917e-08   4.814e-08    -7.308    -7.318    -0.009     18.41
   HSO4-           3.478e-10   3.404e-10    -9.459    -9.468    -0.009     40.26
Xylene        3.491e-04
   Xylene          3.491e-04   3.491e-04    -3.457    -3.457     0.000     (0)  

------------------------------Saturation indices-------------------------------

	Phase               SI   log IAP   log K(298 K,   1 atm)

	CH4(g)         -142.52   -145.36   -2.84  CH4
	CO2(g)           -3.16     -4.62   -1.46  CO2
	H2(g)           -41.33    -44.43   -3.10  H2
	H2O(g)           -1.50     -0.00    1.50  H2O
	H2S(g)         -142.05   -150.05   -7.99  H2S
	Halite           -9.10     -7.53    1.57  NaCl
	O2(g)            -0.62     -3.51   -2.89  O2
	Sulfur         -106.70   -101.82    4.88  S


Reaction step 3.

 -3.2022e-13 
 -3.1607e-13 
 -3.1382e-13 
 -3.0579e-13 
 -2.9145e-13 
 -2.9649e-13 
 -2.9145e-13 
Using solution 1.	
Using kinetics 1.	

Kinetics 1.	

	Time step: 3.33333e+06 seconds  (Incremented time: 1e+07 seconds)

	Rate name       Delta Moles Total Moles   Reactant        Coefficient

	Benzene_degradation   1.087e-06   1.000e+00   Benzene                   1
	Xylene_degradation   1.026e-06   1.000e+00   Xylene                    1
	EAO2_degradation   1.896e-05   1.000e+00   O2                      7.5
	EASO4_degradation   1.401e-06   1.000e+00   SO4-2                     1
	Biomass_O2_degradation   0.000e+00   1.000e+00   Pseudomonas               1
	Biomass_SO4_degradation   0.000e+00   1.000e+00   Aerogineas                1

-----------------------------Solution composition------------------------------

	Elements           Molality       Moles

	Aerogineas        1.322e-07   1.322e-07
	Benzene           2.526e-04   2.526e-04
	C                 1.639e-04   1.639e-04
	Cl                1.410e-04   1.410e-04
	Na                2.175e-04   2.175e-04
	Pseudomonas       1.328e-07   1.328e-07
	S                 4.778e-05   4.778e-05
	Xylene            3.481e-04   3.481e-04

----------------------------Description of solution----------------------------

                                       pH  =   7.172      Charge balance
                                       pe  =  13.401      Adjusted to redox equilibrium
       Specific Conductance (uS/cm, 25 oC) = 35
                          Density (g/cm3)  =   0.99712
                               Volume (L)  =   1.00299
                        Activity of water  =   1.000
                           Ionic strength  =   3.463e-04
                       Mass of water (kg)  =   1.000e+00
                 Total alkalinity (eq/kg)  =   1.430e-04
                       Total CO2 (mol/kg)  =   1.639e-04
                      Temperature (deg C)  =  25.00
                  Electrical balance (eq)  =  -1.621e-04
 Percent error, 100*(Cat-|An|)/(Cat+|An|)  = -27.15
                               Iterations  =  40
                                  Total H  = 1.110126e+02
                                  Total O  = 5.550720e+01

----------------------------Distribution of species----------------------------

                                               Log       Log       Log    mole V
   Species          Molality    Activity  Molality  Activity     Gamma   cm3/mol

   OH-             1.536e-07   1.504e-07    -6.814    -6.823    -0.009     -4.12
   H+              6.871e-08   6.730e-08    -7.163    -7.172    -0.009      0.00
   H2O             5.551e+01   1.000e+00     1.744    -0.000     0.000     18.07
Aerogineas    1.322e-07
   Aerogineas      1.322e-07   1.322e-07    -6.879    -6.879     0.000     (0)  
Benzene       2.526e-04
   Benzene         2.526e-04   2.526e-04    -3.598    -3.598     0.000     (0)  
C(-4)         0.000e+00
   CH4             0.000e+00   0.000e+00  -144.869  -144.869     0.000     32.22
C(4)          1.639e-04
   HCO3-           1.426e-04   1.396e-04    -3.846    -3.855    -0.009     24.58
   CO2             2.113e-05   2.113e-05    -4.675    -4.675     0.000     30.26
   CO3-2           1.059e-07   9.728e-08    -6.975    -7.012    -0.037     -4.42
   NaHCO3          7.462e-08   7.463e-08    -7.127    -7.127     0.000     19.41
   NaCO3-          9.445e-11   9.247e-11   -10.025   -10.034    -0.009     -0.67
Cl            1.410e-04
   Cl-             1.410e-04   1.381e-04    -3.851    -3.860    -0.009     18.06
H(0)          0.000e+00
   H2              0.000e+00   0.000e+00   -44.296   -44.296     0.000     28.61
Na            2.175e-04
   Na+             2.174e-04   2.128e-04    -3.663    -3.672    -0.009     -1.40
   NaHCO3          7.462e-08   7.463e-08    -7.127    -7.127     0.000     19.41
   NaSO4-          4.777e-08   4.677e-08    -7.321    -7.330    -0.009     18.41
   NaCO3-          9.445e-11   9.247e-11   -10.025   -10.034    -0.009     -0.67
   NaOH            3.200e-21   3.200e-21   -20.495   -20.495     0.000     (0)  
O(0)          3.257e-04
   O2              1.628e-04   1.629e-04    -3.788    -3.788     0.000     30.40
Pseudomonas   1.328e-07
   Pseudomonas     1.328e-07   1.328e-07    -6.877    -6.877     0.000     (0)  
S(-2)         0.000e+00
   HS-             0.000e+00   0.000e+00  -142.454  -142.464    -0.009     20.59
   H2S             0.000e+00   0.000e+00  -142.694  -142.694     0.000     37.16
   S-2             0.000e+00   0.000e+00  -148.173  -148.210    -0.037     (0)  
S(6)          4.778e-05
   SO4-2           4.774e-05   4.385e-05    -4.321    -4.358    -0.037     13.96
   NaSO4-          4.777e-08   4.677e-08    -7.321    -7.330    -0.009     18.41
   HSO4-           2.931e-10   2.870e-10    -9.533    -9.542    -0.009     40.26
Xylene        3.481e-04
   Xylene          3.481e-04   3.481e-04    -3.458    -3.458     0.000     (0)  

------------------------------Saturation indices-------------------------------

	Phase               SI   log IAP   log K(298 K,   1 atm)

	CH4(g)         -142.03   -144.87   -2.84  CH4
	CO2(g)           -3.21     -4.68   -1.46  CO2
	H2(g)           -41.19    -44.30   -3.10  H2
	H2O(g)           -1.50     -0.00    1.50  H2O
	H2S(g)         -141.64   -149.64   -7.99  H2S
	Halite           -9.10     -7.53    1.57  NaCl
	O2(g)            -0.90     -3.79   -2.89  O2
	Sulfur         -106.43   -101.55    4.88  S


------------------
End of simulation.
------------------

------------------------------------
Reading input data for simulation 2.
------------------------------------

------------------------------
End of Run after 0.03 Seconds.
------------------------------

