   Input file: equil.phrq
  Output file: equil.phrq.out
Database file: llnl.dat

------------------
Reading data base.
------------------

	LLNL_AQUEOUS_MODEL_PARAMETERS
	NAMED_EXPRESSIONS
	SOLUTION_MASTER_SPECIES
	SOLUTION_SPECIES
	PHASES
	EXCHANGE_MASTER_SPECIES
	EXCHANGE_SPECIES
	SURFACE_MASTER_SPECIES
	SURFACE_SPECIES
	RATES
	END
------------------------------------
Reading input data for simulation 1.
------------------------------------

	SOLUTION_MASTER_SPECIES
	S(+7)    S2O8-2     0.0 S
	S(+4)	 SO3-2		0.0	S
	SOLUTION_SPECIES
	 2.0000 SO3--  + 1.500 O2  + 2.0000 H+  = S2O8--  + H2O
	         llnl_gamma           4.0
	          log_k           70.7489
	         delta_h    0           # Not possible to calculate enthalpy of reaction    S2O8-2
	         analytical_expression 0.18394E+03    0.60414E-01    0.13864E+05   -0.71804E+02    0.21628E+03
	SOLUTION 
	pH 7.0 charge
	temp 25.0
	 O(0)  2
	 C(4)   10
	 S(6)  5
	 Na     5
	 Cl		5
	 Ca     1
	EQUILIBRIUM_PHASES 1
	 	Calcite 1
	SELECTED_OUTPUT
	reset false
	file degradation.csv
	high_precision
	molalities Ca+2 Cl- Na+ CO3-2 SO4-2 O2 S2O8-2
-------------------------------------------
Beginning of initial solution calculations.
-------------------------------------------

Initial solution 1.	

-----------------------------Solution composition------------------------------

	Elements           Molality       Moles

	C(4)              1.000e-02   1.000e-02
	Ca                1.000e-03   1.000e-03
	Cl                5.000e-03   5.000e-03
	Na                5.000e-03   5.000e-03
	O(0)              2.000e-03   2.000e-03
	S(6)              5.000e-03   5.000e-03

----------------------------Description of solution----------------------------

                                       pH  =   2.227      Charge balance
                                       pe  =   4.000    
                        Activity of water  =   0.999
                           Ionic strength  =   1.751e-02
                       Mass of water (kg)  =   1.000e+00
                 Total alkalinity (eq/kg)  =  -8.000e-03
                       Total CO2 (mol/kg)  =   1.000e-02
                      Temperature (deg C)  =  25.00
                  Electrical balance (eq)  =   2.602e-18
 Percent error, 100*(Cat-|An|)/(Cat+|An|)  =   0.00
                               Iterations  =   9
                                  Total H  = 1.110587e+02
                                  Total O  = 5.556733e+01

---------------------------------Redox couples---------------------------------

	Redox couple             pe  Eh (volts)

	O(-2)/O(0)          18.5225      1.0957

----------------------------Distribution of species----------------------------

                                               Log       Log       Log    mole V
   Species          Molality    Activity  Molality  Activity     Gamma   cm3/mol

   H+              6.623e-03   5.931e-03    -2.179    -2.227    -0.048      0.00
   OH-             1.856e-12   1.624e-12   -11.732   -11.790    -0.058     (0)  
   H2O             5.553e+01   9.994e-01     1.744    -0.000     0.000     18.07
C(4)          1.000e-02
   CO2             9.999e-03   1.004e-02    -2.000    -1.998     0.002     (0)  
   HCO3-           8.317e-07   7.295e-07    -6.080    -6.137    -0.057     (0)  
   CaHCO3+         5.104e-09   4.477e-09    -8.292    -8.349    -0.057     (0)  
   NaHCO3          4.513e-09   4.513e-09    -8.345    -8.345     0.000     (0)  
   CO3-2           9.174e-15   5.457e-15   -14.037   -14.263    -0.226     (0)  
   CaCO3           6.549e-15   6.549e-15   -14.184   -14.184     0.000     (0)  
   NaCO3-          9.415e-17   8.258e-17   -16.026   -16.083    -0.057     (0)  
Ca            1.000e-03
   Ca+2            8.475e-04   5.179e-04    -3.072    -3.286    -0.214     (0)  
   CaSO4           1.520e-04   1.520e-04    -3.818    -3.818     0.000     (0)  
   CaCl+           5.450e-07   4.780e-07    -6.264    -6.321    -0.057     (0)  
   CaHCO3+         5.104e-09   4.477e-09    -8.292    -8.349    -0.057     (0)  
   CaCl2           2.449e-09   2.449e-09    -8.611    -8.611     0.000     (0)  
   CaOH+           1.405e-14   1.233e-14   -13.852   -13.909    -0.057     (0)  
   CaCO3           6.549e-15   6.549e-15   -14.184   -14.184     0.000     (0)  
Cl(-1)        5.000e-03
   Cl-             4.990e-03   4.355e-03    -2.302    -2.361    -0.059     (0)  
   HCl             5.802e-06   5.802e-06    -5.236    -5.236     0.000     (0)  
   NaCl            3.311e-06   3.311e-06    -5.480    -5.480     0.000     (0)  
   CaCl+           5.450e-07   4.780e-07    -6.264    -6.321    -0.057     (0)  
   CaCl2           2.449e-09   2.449e-09    -8.611    -8.611     0.000     (0)  
Cl(1)         0.000e+00
   HClO            0.000e+00   0.000e+00   -42.674   -42.674     0.000     (0)  
   ClO-            0.000e+00   0.000e+00   -47.959   -48.016    -0.057     (0)  
Cl(3)         0.000e+00
   HClO2           0.000e+00   0.000e+00   -85.623   -85.623     0.000     (0)  
   ClO2-           0.000e+00   0.000e+00   -86.509   -86.566    -0.057     (0)  
Cl(5)         0.000e+00
   ClO3-           0.000e+00   0.000e+00  -111.205  -111.263    -0.058     (0)  
Cl(7)         0.000e+00
   ClO4-           0.000e+00   0.000e+00  -140.204  -140.262    -0.058     (0)  
H(0)          5.559e-16
   H2              2.780e-16   2.791e-16   -15.556   -15.554     0.002     (0)  
Na            5.000e-03
   Na+             4.931e-03   4.326e-03    -2.307    -2.364    -0.057     (0)  
   NaSO4-          6.545e-05   5.741e-05    -4.184    -4.241    -0.057     (0)  
   NaCl            3.311e-06   3.311e-06    -5.480    -5.480     0.000     (0)  
   NaHCO3          4.513e-09   4.513e-09    -8.345    -8.345     0.000     (0)  
   NaOH            1.212e-15   1.212e-15   -14.917   -14.917     0.000     (0)  
   NaCO3-          9.415e-17   8.258e-17   -16.026   -16.083    -0.057     (0)  
O(0)          2.000e-03
   O2              1.000e-03   1.004e-03    -3.000    -2.998     0.002     (0)  
S(6)          5.000e-03
   SO4-2           3.410e-03   2.009e-03    -2.467    -2.697    -0.230     (0)  
   HSO4-           1.372e-03   1.204e-03    -2.863    -2.920    -0.057     (0)  
   CaSO4           1.520e-04   1.520e-04    -3.818    -3.818     0.000     (0)  
   NaSO4-          6.545e-05   5.741e-05    -4.184    -4.241    -0.057     (0)  
   H2SO4           6.735e-09   6.735e-09    -8.172    -8.172     0.000     (0)  

------------------------------Saturation indices-------------------------------

	Phase               SI   log IAP   log K(298 K,   1 atm)

	Anhydrite        -1.63     -5.98   -4.35  CaSO4
	Antarcticite    -12.10     -8.01    4.09  CaCl2:6H2O
	Aragonite        -9.17     -7.20    1.97  CaCO3
	Bassanite        -2.28     -5.98   -3.71  CaSO4:0.5H2O
	Burkeite        -32.97    -23.49    9.49  Na6CO3(SO4)2
	C               -69.51     -5.37   64.15  C
	C(g)           -187.13     -5.37  181.77  C
	Ca             -137.17      2.67  139.83  Ca
	Ca(g)          -162.40      2.67  165.07  Ca
	Ca2Cl2(OH)2:H2O -33.13     -6.84   26.29  Ca2Cl2(OH)2:H2O
	Ca4Cl2(OH)6:13H2O -72.84     -4.51   68.33  Ca4Cl2(OH)6:13H2O
	Calcite          -9.02     -7.20    1.82  CaCO3
	CaSO4:0.5H2O(beta)  -2.45     -5.98   -3.54  CaSO4:0.5H2O
	Cl2(g)          -13.67    -10.67    2.99  Cl2
	CO2(g)           -0.53     -8.36   -7.83  CO2
	Gaylussite      -27.00    -15.84   11.16  CaNa2(CO3)2:5H2O
	Glauberite       -7.94    -13.41   -5.47  Na2Ca(SO4)2
	Gypsum           -1.45     -5.98   -4.53  CaSO4:2H2O
	H2(g)           -12.45    -15.55   -3.10  H2
	H2O(g)           -1.59     -0.00    1.59  H2O
	Halite           -6.29     -4.72    1.56  NaCl
	HCl(g)          -10.89     -4.59    6.30  HCl
	Hydrophilite    -19.75     -8.01   11.75  CaCl2
	Ice              -0.14     -0.00    0.14  H2O
	Lime            -31.40      1.17   32.57  CaO
	Mirabilite       -6.27     -7.43   -1.15  Na2SO4:10H2O
	Monohydrocalcite  -9.87     -7.20    2.68  CaCO3:H2O
	Na              -66.76      0.61   67.37  Na
	Na(g)           -80.25      0.61   80.86  Na
	Na2CO3          -19.80     -8.64   11.16  Na2CO3
	Na2CO3:7H2O     -18.58     -8.64    9.94  Na2CO3:7H2O
	Na2O            -67.69     -0.27   67.42  Na2O
	Na3H(SO4)2      -13.82    -14.71   -0.89  Na3H(SO4)2
	Na4Ca(SO4)3:2H2O -14.94    -20.83   -5.89  Na4Ca(SO4)3:2H2O
	Nahcolite        -8.36     -8.50   -0.14  NaHCO3
	Natron          -18.23     -8.64    9.59  Na2CO3:10H2O
	O2(g)            -0.11     -3.00   -2.89  O2
	Pirssonite      -27.16    -15.83   11.32  Na2Ca(CO3)2:2H2O
	Portlandite     -21.38      1.17   22.55  Ca(OH)2
	Thenardite       -7.07     -7.42   -0.36  Na2SO4
	Thermonatrite   -19.57     -8.64   10.94  Na2CO3:H2O


-----------------------------------------
Beginning of batch-reaction calculations.
-----------------------------------------

Reaction step 1.

Using solution 1.	
Using pure phase assemblage 1.	

-------------------------------Phase assemblage--------------------------------

                                                      Moles in assemblage
Phase               SI  log IAP  log K(T, P)   Initial       Final       Delta

Calcite           1.00     2.82      1.82    1.000e+01   9.986e+00  -1.367e-02

-----------------------------Solution composition------------------------------

	Elements           Molality       Moles

	C                 2.367e-02   2.367e-02
	Ca                1.467e-02   1.467e-02
	Cl                5.001e-03   5.000e-03
	Na                5.001e-03   5.000e-03
	S                 5.001e-03   5.000e-03

----------------------------Description of solution----------------------------

                                       pH  =   6.885      Charge balance
                                       pe  =  13.866      Adjusted to redox equilibrium
                        Activity of water  =   0.999
                           Ionic strength  =   4.550e-02
                       Mass of water (kg)  =   9.999e-01
                 Total alkalinity (eq/kg)  =   1.934e-02
                       Total CO2 (mol/kg)  =   2.367e-02
                      Temperature (deg C)  =  25.00
                  Electrical balance (eq)  =  -1.301e-17
 Percent error, 100*(Cat-|An|)/(Cat+|An|)  =  -0.00
                               Iterations  =  21
                                  Total H  = 1.110587e+02
                                  Total O  = 5.560833e+01

----------------------------Distribution of species----------------------------

                                               Log       Log       Log    mole V
   Species          Molality    Activity  Molality  Activity     Gamma   cm3/mol

   H+              1.515e-07   1.304e-07    -6.820    -6.885    -0.065      0.00
   OH-             8.992e-08   7.381e-08    -7.046    -7.132    -0.086     (0)  
   H2O             5.553e+01   9.991e-01     1.744    -0.000     0.000     18.07
C(-2)         0.000e+00
   C2H4            0.000e+00   0.000e+00  -262.865  -262.865     0.000     (0)  
C(-3)         0.000e+00
   C2H6            0.000e+00   0.000e+00  -235.478  -235.478     0.000     (0)  
C(-4)         0.000e+00
   CH4             0.000e+00   0.000e+00  -146.818  -146.818     0.000     (0)  
C(2)          0.000e+00
   CO              0.000e+00   0.000e+00   -48.892   -48.892     0.000     (0)  
C(4)          2.367e-02
   HCO3-           1.785e-02   1.473e-02    -1.748    -1.832    -0.083     (0)  
   CO2             4.411e-03   4.460e-03    -2.355    -2.351     0.005     (0)  
   CaHCO3+         1.250e-03   1.032e-03    -2.903    -2.986    -0.083     (0)  
   NaHCO3          8.454e-05   8.454e-05    -4.073    -4.073     0.000     (0)  
   CaCO3           6.867e-05   6.867e-05    -4.163    -4.163     0.000     (0)  
   CO3-2           1.071e-05   5.011e-06    -4.970    -5.300    -0.330     (0)  
   NaCO3-          8.522e-08   7.034e-08    -7.069    -7.153    -0.083     (0)  
Ca            1.467e-02
   Ca+2            1.194e-02   5.913e-03    -1.923    -2.228    -0.305     (0)  
   CaSO4           1.403e-03   1.403e-03    -2.853    -2.853     0.000     (0)  
   CaHCO3+         1.250e-03   1.032e-03    -2.903    -2.986    -0.083     (0)  
   CaCO3           6.867e-05   6.867e-05    -4.163    -4.163     0.000     (0)  
   CaCl+           6.185e-06   5.105e-06    -5.209    -5.292    -0.083     (0)  
   CaCl2           2.446e-08   2.446e-08    -7.612    -7.612     0.000     (0)  
   CaOH+           7.752e-09   6.399e-09    -8.111    -8.194    -0.083     (0)  
Cl(-1)        5.001e-03
   Cl-             4.991e-03   4.073e-03    -2.302    -2.390    -0.088     (0)  
   CaCl+           6.185e-06   5.105e-06    -5.209    -5.292    -0.083     (0)  
   NaCl            2.873e-06   2.873e-06    -5.542    -5.542     0.000     (0)  
   CaCl2           2.446e-08   2.446e-08    -7.612    -7.612     0.000     (0)  
   HCl             1.193e-10   1.193e-10    -9.923    -9.923     0.000     (0)  
Cl(1)         6.068e-19
   HClO            4.853e-19   4.853e-19   -18.314   -18.314     0.000     (0)  
   ClO-            1.215e-19   1.003e-19   -18.915   -18.999    -0.083     (0)  
Cl(3)         3.816e-29
   ClO2-           3.816e-29   3.150e-29   -28.418   -28.502    -0.083     (0)  
   HClO2           6.073e-33   6.073e-33   -32.217   -32.217     0.000     (0)  
Cl(5)         8.572e-25
   ClO3-           8.572e-25   7.037e-25   -24.067   -24.153    -0.086     (0)  
Cl(7)         9.559e-25
   ClO4-           9.559e-25   7.847e-25   -24.020   -24.105    -0.086     (0)  
H(0)          0.000e+00
   H2              0.000e+00   0.000e+00   -44.606   -44.601     0.005     (0)  
Na            5.001e-03
   Na+             4.861e-03   4.012e-03    -2.313    -2.397    -0.083     (0)  
   NaHCO3          8.454e-05   8.454e-05    -4.073    -4.073     0.000     (0)  
   NaSO4-          5.217e-05   4.307e-05    -4.283    -4.366    -0.083     (0)  
   NaCl            2.873e-06   2.873e-06    -5.542    -5.542     0.000     (0)  
   NaCO3-          8.522e-08   7.034e-08    -7.069    -7.153    -0.083     (0)  
   NaOH            5.109e-11   5.109e-11   -10.292   -10.292     0.000     (0)  
O(0)          2.000e-03
   O2              1.000e-03   1.011e-03    -3.000    -2.995     0.005     (0)  
S(-2)         0.000e+00
   H2S             0.000e+00   0.000e+00  -141.841  -141.841     0.000     (0)  
   HS-             0.000e+00   0.000e+00  -141.880  -141.966    -0.086     (0)  
   S-2             0.000e+00   0.000e+00  -147.686  -148.007    -0.321     (0)  
   S2-2            0.000e+00   0.000e+00  -251.833  -252.172    -0.339     (0)  
   S3-2            0.000e+00   0.000e+00  -356.039  -356.378    -0.339     (0)  
   S4-2            0.000e+00   0.000e+00  -460.472  -460.810    -0.339     (0)  
   S5-2            0.000e+00   0.000e+00  -565.121  -565.460    -0.339     (0)  
S(2)          0.000e+00
   S2O3-2          0.000e+00   0.000e+00  -146.492  -146.831    -0.339     (0)  
   HS2O3-          0.000e+00   0.000e+00  -152.618  -152.702    -0.083     (0)  
S(3)          0.000e+00
   S2O4-2          0.000e+00   0.000e+00  -132.936  -133.257    -0.321     (0)  
S(4)          0.000e+00
   HSO3-           0.000e+00   0.000e+00   -47.479   -47.563    -0.083     (0)  
   SO3-2           0.000e+00   0.000e+00   -47.580   -47.910    -0.330     (0)  
   H2SO3           0.000e+00   0.000e+00   -52.466   -52.466     0.000     (0)  
   SO2             0.000e+00   0.000e+00   -52.566   -52.566     0.000     (0)  
   S2O6-2          0.000e+00   0.000e+00   -68.880   -69.219    -0.339     (0)  
   S3O6-2          0.000e+00   0.000e+00  -175.568  -175.907    -0.339     (0)  
   S4O6-2          0.000e+00   0.000e+00  -266.351  -266.690    -0.339     (0)  
   S5O6-2          0.000e+00   0.000e+00  -386.013  -386.352    -0.339     (0)  
S(5)          0.000e+00
   S2O5-2          0.000e+00   0.000e+00   -99.616   -99.955    -0.339     (0)  
S(6)          5.001e-03
   SO4-2           3.545e-03   1.625e-03    -2.450    -2.789    -0.339     (0)  
   CaSO4           1.403e-03   1.403e-03    -2.853    -2.853     0.000     (0)  
   NaSO4-          5.217e-05   4.307e-05    -4.283    -4.366    -0.083     (0)  
   HSO4-           2.593e-08   2.140e-08    -7.586    -7.670    -0.083     (0)  
   H2SO4           2.634e-18   2.634e-18   -17.579   -17.579     0.000     (0)  
S(7)          0.000e+00
   S2O8-2          0.000e+00   0.000e+00   -42.961   -43.300    -0.339     (0)  
S(8)          4.479e-29
   HSO5-           4.479e-29   3.697e-29   -28.349   -28.432    -0.083     (0)  

------------------------------Saturation indices-------------------------------

	Phase               SI   log IAP   log K(298 K,   1 atm)

	Anhydrite        -0.67     -5.02   -4.35  CaSO4
	Antarcticite    -11.10     -7.01    4.09  CaCl2:6H2O
	Aragonite         0.85      2.82    1.97  CaCO3
	Bassanite        -1.31     -5.02   -3.71  CaSO4:0.5H2O
	Burkeite        -24.39    -14.91    9.49  Na6CO3(SO4)2
	C               -69.87     -5.72   64.15  C
	C(g)           -187.49     -5.72  181.77  C
	Ca             -126.79     13.04  139.83  Ca
	Ca(g)          -152.03     13.04  165.07  Ca
	Ca2Cl2(OH)2:H2O -21.76      4.53   26.29  Ca2Cl2(OH)2:H2O
	Ca4Cl2(OH)6:13H2O -40.72     27.61   68.33  Ca4Cl2(OH)6:13H2O
	Calcite           1.00      2.82    1.82  CaCO3
	CaSO4:0.5H2O(beta)  -1.48     -5.02   -3.54  CaSO4:0.5H2O
	CH4(g)         -143.97   -146.82   -2.84  CH4
	Cl2(g)          -23.04    -20.05    2.99  Cl2
	CO(g)           -45.90    -48.89   -3.00  CO
	CO2(g)           -0.89     -8.72   -7.83  CO2
	Gaylussite       -8.08      3.08   11.16  CaNa2(CO3)2:5H2O
	Glauberite       -7.13    -12.60   -5.47  Na2Ca(SO4)2
	Gypsum           -0.49     -5.02   -4.53  CaSO4:2H2O
	H2(g)           -41.50    -44.60   -3.10  H2
	H2O(g)           -1.59     -0.00    1.59  H2O
	H2S(g)         -140.86   -148.85   -7.99  H2S
	Halite           -6.35     -4.79    1.56  NaCl
	HCl(g)          -15.58     -9.27    6.30  HCl
	Hydrophilite    -18.75     -7.01   11.75  CaCl2
	Ice              -0.14     -0.00    0.14  H2O
	Lime            -21.03     11.54   32.57  CaO
	Mirabilite       -6.43     -7.59   -1.15  Na2SO4:10H2O
	Monohydrocalcite   0.15      2.82    2.68  CaCO3:H2O
	Na              -62.13      5.24   67.37  Na
	Na(g)           -75.62      5.24   80.86  Na
	Na2CO3          -10.90      0.26   11.16  Na2CO3
	Na2CO3:7H2O      -9.68      0.26    9.94  Na2CO3:7H2O
	Na2O            -58.44      8.98   67.42  Na2O
	Na3H(SO4)2      -18.76    -19.65   -0.89  Na3H(SO4)2
	Na4Ca(SO4)3:2H2O -14.29    -20.18   -5.89  Na4Ca(SO4)3:2H2O
	Nahcolite        -4.09     -4.23   -0.14  NaHCO3
	Natron           -9.33      0.26    9.59  Na2CO3:10H2O
	O2(g)            -0.10     -3.00   -2.89  O2
	Pirssonite       -8.24      3.08   11.32  Na2Ca(CO3)2:2H2O
	Portlandite     -11.01     11.54   22.55  Ca(OH)2
	S              -105.24   -150.35  -45.11  S
	S2(g)          -224.37   -231.55   -7.19  S2
	SO2(g)          -52.74    -52.57    0.18  SO2
	Thenardite       -7.22     -7.58   -0.36  Na2SO4
	Thermonatrite   -10.68      0.26   10.94  Na2CO3:H2O


------------------
End of simulation.
------------------

------------------------------------
Reading input data for simulation 2.
------------------------------------

------------------------------
End of Run after 0.15 Seconds.
------------------------------

